Circuit: * C:\Users\Giselle\Desktop\classes\ecen 2440\ECEN2440-final-project\ltspice\Draft2.asc

WARNING: Node NC_01 is floating.

WARNING: Less than two connections to node NC_01.  This node is used by C4.
Direct Newton iteration for .op point succeeded.
.step f_pwm=100000
.step f_pwm=150000
.step f_pwm=200000
.step f_pwm=250000
.step f_pwm=300000

Date: Mon Nov 04 14:00:56 2019
Total elapsed time: 17.562 seconds.

tnom = 27
temp = 27
method = modified trap
totiter = 1517447
traniter = 1517443
tranpoints = 500021
accept = 500021
rejected = 0
matrix size = 14
fillins = 0
solver = Normal
Matrix Compiler1: 330 bytes object code size  0.1/0.1/[0.1]
Matrix Compiler2: 780 bytes object code size  0.1/0.1/[0.1]

