Circuit: * C:\Users\Giselle\Desktop\classes\ecen 2440\ECEN2440-final-project\ltspice\Draft2.asc

WARNING: Node NC_01 is floating.

WARNING: Less than two connections to node NC_01.  This node is used by C4.
Direct Newton iteration for .op point succeeded.
.step f_pwm=100000
.step f_pwm=200000
.step f_pwm=300000
.step f_pwm=400000
.step f_pwm=500000

Date: Mon Nov 11 09:07:40 2019
Total elapsed time: 35.057 seconds.

tnom = 27
temp = 27
method = modified trap
totiter = 3037382
traniter = 3037378
tranpoints = 1000018
accept = 1000018
rejected = 0
matrix size = 14
fillins = 0
solver = Normal
Matrix Compiler1: 330 bytes object code size  0.1/0.1/[0.1]
Matrix Compiler2: off  [0.1]/0.1/0.1

